<?xml version="1.0" encoding="UTF-8"?>

<!-- generated on 2024-09-10 10:46:58 by Eclipse SUMO netconvert Version 1.20.0
<configuration xmlns:xsi="http://www.w3.org/2001/XMLSchema-instance" xsi:noNamespaceSchemaLocation="http://sumo.dlr.de/xsd/netconvertConfiguration.xsd">

    <input>
        <osm-files value="C:\Users\laboratorio\Downloads\Sumo\Casa.osm"/>
    </input>

    <output>
        <output-file value="C:\Users\laboratorio\Downloads\Sumo\Casa.net.xml"/>
    </output>

    <projection>
        <proj.utm value="true"/>
    </projection>

</configuration>
-->

<net version="1.20" junctionCornerDetail="5" limitTurnSpeed="5.50" xmlns:xsi="http://www.w3.org/2001/XMLSchema-instance" xsi:noNamespaceSchemaLocation="http://sumo.dlr.de/xsd/net_file.xsd">

    <location netOffset="-228096.44,3287516.62" convBoundary="0.00,0.00,802.58,886.71" origBoundary="-53.809765,-29.689933,-53.800172,-29.680117" projParameter="+proj=utm +zone=22 +ellps=WGS84 +datum=WGS84 +units=m +no_defs"/>

    <type id="highway.footway" priority="1" numLanes="1" speed="2.78" allow="pedestrian" oneway="1" width="2.00"/>
    <type id="highway.path" priority="1" numLanes="1" speed="5.56" allow="pedestrian bicycle" oneway="0" width="2.00"/>
    <type id="highway.pedestrian" priority="1" numLanes="1" speed="2.78" allow="pedestrian" oneway="1" width="2.00"/>
    <type id="highway.residential" priority="3" numLanes="1" speed="13.89" disallow="tram rail_urban rail rail_electric rail_fast ship container cable_car subway aircraft wheelchair scooter drone" oneway="0"/>
    <type id="highway.service" priority="1" numLanes="1" speed="5.56" allow="pedestrian delivery bicycle" oneway="0"/>
    <type id="highway.steps" priority="1" numLanes="1" speed="1.39" allow="pedestrian" oneway="1" width="2.00"/>
    <type id="highway.tertiary" priority="10" numLanes="1" speed="22.22" disallow="tram rail_urban rail rail_electric rail_fast ship container cable_car subway aircraft wheelchair scooter drone" oneway="0"/>

    <edge id=":2035554451_0" function="internal">
        <lane id=":2035554451_0_0" index="0" disallow="tram rail_urban rail rail_electric rail_fast ship container cable_car subway aircraft wheelchair scooter drone" speed="3.65" length="4.67" shape="703.05,689.51 703.99,690.61 704.16,691.49 703.56,692.15 702.18,692.59"/>
    </edge>
    <edge id=":2036485207_0" function="internal">
        <lane id=":2036485207_0_0" index="0" disallow="tram rail_urban rail rail_electric rail_fast ship container cable_car subway aircraft wheelchair scooter drone" speed="22.22" length="10.35" shape="488.23,632.14 478.27,629.32"/>
    </edge>
    <edge id=":2036485207_1" function="internal">
        <lane id=":2036485207_1_0" index="0" disallow="tram rail_urban rail rail_electric rail_fast ship container cable_car subway aircraft wheelchair scooter drone" speed="7.21" length="2.12" shape="488.23,632.14 486.41,631.05"/>
    </edge>
    <edge id=":2036485207_2" function="internal">
        <lane id=":2036485207_2_0" index="0" disallow="tram rail_urban rail rail_electric rail_fast ship container cable_car subway aircraft wheelchair scooter drone" speed="3.65" length="1.44" shape="488.23,632.14 487.30,631.04"/>
    </edge>
    <edge id=":2036485207_9" function="internal">
        <lane id=":2036485207_9_0" index="0" disallow="tram rail_urban rail rail_electric rail_fast ship container cable_car subway aircraft wheelchair scooter drone" speed="7.21" length="9.02" shape="486.41,631.05 485.43,629.05 485.29,626.14 485.99,622.32"/>
    </edge>
    <edge id=":2036485207_10" function="internal">
        <lane id=":2036485207_10_0" index="0" disallow="tram rail_urban rail rail_electric rail_fast ship container cable_car subway aircraft wheelchair scooter drone" speed="3.65" length="3.23" shape="487.30,631.04 487.13,630.16 487.74,629.50 489.11,629.06"/>
    </edge>
    <edge id=":2036485207_3" function="internal">
        <lane id=":2036485207_3_0" index="0" disallow="tram rail_urban rail rail_electric rail_fast ship container cable_car subway aircraft wheelchair scooter drone" speed="5.58" length="6.25" shape="489.08,623.13 488.54,625.57 488.37,627.37 488.56,628.54 489.11,629.06"/>
    </edge>
    <edge id=":2036485207_4" function="internal">
        <lane id=":2036485207_4_0" index="0" disallow="tram rail_urban rail rail_electric rail_fast ship container cable_car subway aircraft wheelchair scooter drone" speed="7.97" length="14.27" shape="489.08,623.13 487.56,626.75 485.26,628.98 482.16,629.84 478.27,629.32"/>
    </edge>
    <edge id=":2036485207_5" function="internal">
        <lane id=":2036485207_5_0" index="0" disallow="tram rail_urban rail rail_electric rail_fast ship container cable_car subway aircraft wheelchair scooter drone" speed="3.65" length="4.67" shape="489.08,623.13 488.01,624.09 487.13,624.28 486.46,623.69 485.99,622.32"/>
    </edge>
    <edge id=":2036485207_6" function="internal">
        <lane id=":2036485207_6_0" index="0" disallow="tram rail_urban rail rail_electric rail_fast ship container cable_car subway aircraft wheelchair scooter drone" speed="6.46" length="9.03" shape="479.14,626.24 481.60,626.57 483.56,626.03 485.02,624.61 485.99,622.32"/>
    </edge>
    <edge id=":2036485207_7" function="internal">
        <lane id=":2036485207_7_0" index="0" disallow="tram rail_urban rail rail_electric rail_fast ship container cable_car subway aircraft wheelchair scooter drone" speed="22.22" length="10.36" shape="479.14,626.24 489.11,629.06"/>
    </edge>
    <edge id=":2036485207_8" function="internal">
        <lane id=":2036485207_8_0" index="0" disallow="tram rail_urban rail rail_electric rail_fast ship container cable_car subway aircraft wheelchair scooter drone" speed="3.65" length="1.44" shape="479.14,626.24 480.08,627.34"/>
    </edge>
    <edge id=":2036485207_11" function="internal">
        <lane id=":2036485207_11_0" index="0" disallow="tram rail_urban rail rail_electric rail_fast ship container cable_car subway aircraft wheelchair scooter drone" speed="3.65" length="3.23" shape="480.08,627.34 480.25,628.22 479.65,628.88 478.27,629.32"/>
    </edge>
    <edge id=":2036485208_0" function="internal">
        <lane id=":2036485208_0_0" index="0" disallow="tram rail_urban rail rail_electric rail_fast ship container cable_car subway aircraft wheelchair scooter drone" speed="6.53" length="8.95" shape="550.04,383.12 549.77,385.53 550.34,387.48 551.75,388.94 554.00,389.94"/>
    </edge>
    <edge id=":2036485208_1" function="internal">
        <lane id=":2036485208_1_0" index="0" disallow="tram rail_urban rail rail_electric rail_fast ship container cable_car subway aircraft wheelchair scooter drone" speed="22.22" length="11.04" shape="550.04,383.12 547.26,393.80"/>
    </edge>
    <edge id=":2036485209_0" function="internal">
        <lane id=":2036485209_0_0" index="0" disallow="tram rail_urban rail rail_electric rail_fast ship container cable_car subway aircraft wheelchair scooter drone" speed="6.49" length="9.03" shape="540.17,449.55 537.71,449.25 535.75,449.81 534.29,451.23 533.33,453.51"/>
    </edge>
    <edge id=":2036485209_1" function="internal">
        <lane id=":2036485209_1_0" index="0" disallow="tram rail_urban rail rail_electric rail_fast ship container cable_car subway aircraft wheelchair scooter drone" speed="18.05" length="14.62" shape="540.17,449.55 526.27,445.78"/>
        <lane id=":2036485209_1_1" index="1" disallow="tram rail_urban rail rail_electric rail_fast ship container cable_car subway aircraft wheelchair scooter drone" speed="18.05" length="14.62" shape="540.17,449.55 537.10,448.20 534.50,446.36 531.47,444.40 527.11,442.69"/>
    </edge>
    <edge id=":2036485209_3" function="internal">
        <lane id=":2036485209_3_0" index="0" disallow="tram rail_urban rail rail_electric rail_fast ship container cable_car subway aircraft wheelchair scooter drone" speed="3.65" length="4.67" shape="540.17,449.55 539.22,448.47 539.05,447.59 539.64,446.92 541.01,446.46"/>
    </edge>
    <edge id=":2036485209_4" function="internal">
        <lane id=":2036485209_4_0" index="0" disallow="tram rail_urban rail rail_electric rail_fast ship container cable_car subway aircraft wheelchair scooter drone" speed="6.97" length="10.44" shape="535.43,439.13 535.25,441.63 536.12,443.68 538.04,445.30 541.01,446.46"/>
    </edge>
    <edge id=":2036485209_5" function="internal">
        <lane id=":2036485209_5_0" index="0" disallow="tram rail_urban rail rail_electric rail_fast ship container cable_car subway aircraft wheelchair scooter drone" speed="18.05" length="14.55" shape="535.43,439.13 534.75,442.74 534.38,446.32 534.02,449.91 533.33,453.51"/>
    </edge>
    <edge id=":2036485209_6" function="internal">
        <lane id=":2036485209_6_0" index="0" disallow="tram rail_urban rail rail_electric rail_fast ship container cable_car subway aircraft wheelchair scooter drone" speed="6.88" length="10.30" shape="535.43,439.13 534.38,441.39 532.64,442.74 530.22,443.17 527.11,442.69"/>
    </edge>
    <edge id=":2036485209_7" function="internal">
        <lane id=":2036485209_7_0" index="0" disallow="tram rail_urban rail rail_electric rail_fast ship container cable_car subway aircraft wheelchair scooter drone" speed="6.54" length="9.08" shape="530.24,452.71 530.52,450.22 529.96,448.24 528.54,446.76 526.27,445.78"/>
    </edge>
    <edge id=":2036485209_8" function="internal">
        <lane id=":2036485209_8_0" index="0" disallow="tram rail_urban rail rail_electric rail_fast ship container cable_car subway aircraft wheelchair scooter drone" speed="7.99" length="3.41" shape="530.24,452.71 531.56,449.56"/>
    </edge>
    <edge id=":2036485209_9" function="internal">
        <lane id=":2036485209_9_0" index="0" disallow="tram rail_urban rail rail_electric rail_fast ship container cable_car subway aircraft wheelchair scooter drone" speed="3.65" length="1.44" shape="530.24,452.71 531.31,451.75"/>
    </edge>
    <edge id=":2036485209_10" function="internal">
        <lane id=":2036485209_10_0" index="0" disallow="tram rail_urban rail rail_electric rail_fast ship container cable_car subway aircraft wheelchair scooter drone" speed="7.99" length="10.82" shape="531.56,449.56 531.75,449.11 534.05,446.87 537.13,445.99 541.01,446.46"/>
    </edge>
    <edge id=":2036485209_11" function="internal">
        <lane id=":2036485209_11_0" index="0" disallow="tram rail_urban rail rail_electric rail_fast ship container cable_car subway aircraft wheelchair scooter drone" speed="3.65" length="3.23" shape="531.31,451.75 532.19,451.56 532.86,452.15 533.33,453.51"/>
    </edge>
    <edge id=":2036485210_0" function="internal">
        <lane id=":2036485210_0_0" index="0" disallow="tram rail_urban rail rail_electric rail_fast ship container cable_car subway aircraft wheelchair scooter drone" speed="6.52" length="9.02" shape="459.22,427.63 456.76,427.32 454.80,427.87 453.32,429.28 452.33,431.53"/>
        <lane id=":2036485210_0_1" index="1" disallow="tram rail_urban rail rail_electric rail_fast ship container cable_car subway aircraft wheelchair scooter drone" speed="8.01" length="14.17" shape="460.06,424.54 456.20,424.06 453.12,424.93 450.80,427.13 449.25,430.68"/>
    </edge>
    <edge id=":2036485210_2" function="internal">
        <lane id=":2036485210_2_0" index="0" disallow="tram rail_urban rail rail_electric rail_fast ship container cable_car subway aircraft wheelchair scooter drone" speed="11.11" length="10.77" shape="455.20,421.15 452.33,431.53"/>
        <lane id=":2036485210_2_1" index="1" disallow="tram rail_urban rail rail_electric rail_fast ship container cable_car subway aircraft wheelchair scooter drone" speed="11.11" length="10.77" shape="452.12,420.30 449.25,430.68"/>
    </edge>
    <edge id=":2036485211_0" function="internal">
        <lane id=":2036485211_0_0" index="0" disallow="tram rail_urban rail rail_electric rail_fast ship container cable_car subway aircraft wheelchair scooter drone" speed="13.89" length="15.73" shape="659.62,473.11 660.68,476.85 661.74,480.73 662.49,484.65 662.60,488.47"/>
    </edge>
    <edge id=":2036485211_1" function="internal">
        <lane id=":2036485211_1_0" index="0" disallow="tram rail_urban rail rail_electric rail_fast ship container cable_car subway aircraft wheelchair scooter drone" speed="6.40" length="8.05" shape="659.62,473.11 660.23,477.12 659.57,479.69 658.41,480.36"/>
    </edge>
    <edge id=":2036485211_6" function="internal">
        <lane id=":2036485211_6_0" index="0" disallow="tram rail_urban rail rail_electric rail_fast ship container cable_car subway aircraft wheelchair scooter drone" speed="6.40" length="4.10" shape="658.41,480.36 657.64,480.82 654.44,480.50"/>
    </edge>
    <edge id=":2036485211_2" function="internal">
        <lane id=":2036485211_2_0" index="0" disallow="tram rail_urban rail rail_electric rail_fast ship container cable_car subway aircraft wheelchair scooter drone" speed="8.69" length="14.59" shape="655.28,477.41 658.76,478.92 661.14,481.27 662.42,484.45 662.60,488.47"/>
    </edge>
    <edge id=":2036485211_3" function="internal">
        <lane id=":2036485211_3_0" index="0" disallow="tram rail_urban rail rail_electric rail_fast ship container cable_car subway aircraft wheelchair scooter drone" speed="3.65" length="4.67" shape="655.28,477.41 656.23,478.50 656.41,479.37 655.81,480.04 654.44,480.50"/>
    </edge>
    <edge id=":2036485211_4" function="internal">
        <lane id=":2036485211_4_0" index="0" disallow="tram rail_urban rail rail_electric rail_fast ship container cable_car subway aircraft wheelchair scooter drone" speed="7.32" length="10.09" shape="659.41,488.21 659.29,485.39 658.43,483.17 656.81,481.54 654.44,480.50"/>
    </edge>
    <edge id=":2036485211_5" function="internal">
        <lane id=":2036485211_5_0" index="0" disallow="tram rail_urban rail rail_electric rail_fast ship container cable_car subway aircraft wheelchair scooter drone" speed="3.65" length="1.33" shape="659.41,488.21 660.23,487.17"/>
    </edge>
    <edge id=":2036485211_7" function="internal">
        <lane id=":2036485211_7_0" index="0" disallow="tram rail_urban rail rail_electric rail_fast ship container cable_car subway aircraft wheelchair scooter drone" speed="3.65" length="3.35" shape="660.23,487.17 660.31,487.08 661.14,486.75 661.90,487.21 662.60,488.47"/>
    </edge>
    <edge id=":2036485217_0" function="internal">
        <lane id=":2036485217_0_0" index="0" disallow="tram rail_urban rail rail_electric rail_fast ship container cable_car subway aircraft wheelchair scooter drone" speed="6.56" length="9.12" shape="552.47,650.30 550.00,649.97 548.01,650.51 546.49,651.91 545.46,654.19"/>
    </edge>
    <edge id=":2036485217_1" function="internal">
        <lane id=":2036485217_1_0" index="0" disallow="tram rail_urban rail rail_electric rail_fast ship container cable_car subway aircraft wheelchair scooter drone" speed="22.22" length="14.45" shape="552.47,650.30 538.56,646.37"/>
    </edge>
    <edge id=":2036485217_2" function="internal">
        <lane id=":2036485217_2_0" index="0" disallow="tram rail_urban rail rail_electric rail_fast ship container cable_car subway aircraft wheelchair scooter drone" speed="7.99" length="4.07" shape="552.47,650.30 548.90,648.72 548.79,648.59"/>
    </edge>
    <edge id=":2036485217_3" function="internal">
        <lane id=":2036485217_3_0" index="0" disallow="tram rail_urban rail rail_electric rail_fast ship container cable_car subway aircraft wheelchair scooter drone" speed="3.65" length="1.44" shape="552.47,650.30 551.53,649.20"/>
    </edge>
    <edge id=":2036485217_16" function="internal">
        <lane id=":2036485217_16_0" index="0" disallow="tram rail_urban rail rail_electric rail_fast ship container cable_car subway aircraft wheelchair scooter drone" speed="7.99" length="10.14" shape="548.79,648.59 546.71,646.38 545.88,643.28 546.42,639.42"/>
    </edge>
    <edge id=":2036485217_17" function="internal">
        <lane id=":2036485217_17_0" index="0" disallow="tram rail_urban rail rail_electric rail_fast ship container cable_car subway aircraft wheelchair scooter drone" speed="3.65" length="3.23" shape="551.53,649.20 551.36,648.32 551.97,647.66 553.34,647.22"/>
    </edge>
    <edge id=":2036485217_4" function="internal">
        <lane id=":2036485217_4_0" index="0" disallow="tram rail_urban rail rail_electric rail_fast ship container cable_car subway aircraft wheelchair scooter drone" speed="6.49" length="9.03" shape="549.50,640.31 549.15,642.76 549.68,644.73 551.07,646.22 553.34,647.22"/>
    </edge>
    <edge id=":2036485217_5" function="internal">
        <lane id=":2036485217_5_0" index="0" disallow="tram rail_urban rail rail_electric rail_fast ship container cable_car subway aircraft wheelchair scooter drone" speed="13.89" length="14.46" shape="549.50,640.31 545.46,654.19"/>
    </edge>
    <edge id=":2036485217_6" function="internal">
        <lane id=":2036485217_6_0" index="0" disallow="tram rail_urban rail rail_electric rail_fast ship container cable_car subway aircraft wheelchair scooter drone" speed="8.03" length="14.24" shape="549.50,640.31 547.90,643.86 545.54,646.05 542.43,646.89 538.56,646.37"/>
    </edge>
    <edge id=":2036485217_7" function="internal">
        <lane id=":2036485217_7_0" index="0" disallow="tram rail_urban rail rail_electric rail_fast ship container cable_car subway aircraft wheelchair scooter drone" speed="3.65" length="4.67" shape="549.50,640.31 548.40,641.24 547.52,641.40 546.86,640.79 546.42,639.42"/>
    </edge>
    <edge id=":2036485217_8" function="internal">
        <lane id=":2036485217_8_0" index="0" disallow="tram rail_urban rail rail_electric rail_fast ship container cable_car subway aircraft wheelchair scooter drone" speed="6.54" length="9.10" shape="539.43,643.29 541.90,643.62 543.89,643.09 545.40,641.69 546.42,639.42"/>
    </edge>
    <edge id=":2036485217_9" function="internal">
        <lane id=":2036485217_9_0" index="0" disallow="tram rail_urban rail rail_electric rail_fast ship container cable_car subway aircraft wheelchair scooter drone" speed="22.22" length="14.45" shape="539.43,643.29 553.34,647.22"/>
    </edge>
    <edge id=":2036485217_10" function="internal">
        <lane id=":2036485217_10_0" index="0" disallow="tram rail_urban rail rail_electric rail_fast ship container cable_car subway aircraft wheelchair scooter drone" speed="7.98" length="4.08" shape="539.43,643.29 543.00,644.88 543.12,645.00"/>
    </edge>
    <edge id=":2036485217_11" function="internal">
        <lane id=":2036485217_11_0" index="0" disallow="tram rail_urban rail rail_electric rail_fast ship container cable_car subway aircraft wheelchair scooter drone" speed="3.65" length="1.44" shape="539.43,643.29 540.37,644.39"/>
    </edge>
    <edge id=":2036485217_18" function="internal">
        <lane id=":2036485217_18_0" index="0" disallow="tram rail_urban rail rail_electric rail_fast ship container cable_car subway aircraft wheelchair scooter drone" speed="7.98" length="10.16" shape="543.12,645.00 545.20,647.22 546.02,650.32 545.46,654.19"/>
    </edge>
    <edge id=":2036485217_19" function="internal">
        <lane id=":2036485217_19_0" index="0" disallow="tram rail_urban rail rail_electric rail_fast ship container cable_car subway aircraft wheelchair scooter drone" speed="3.65" length="3.23" shape="540.37,644.39 540.54,645.27 539.93,645.93 538.56,646.37"/>
    </edge>
    <edge id=":2036485217_12" function="internal">
        <lane id=":2036485217_12_0" index="0" disallow="tram rail_urban rail rail_electric rail_fast ship container cable_car subway aircraft wheelchair scooter drone" speed="6.48" length="9.03" shape="542.39,653.29 542.74,650.83 542.22,648.86 540.83,647.38 538.56,646.37"/>
    </edge>
    <edge id=":2036485217_13" function="internal">
        <lane id=":2036485217_13_0" index="0" disallow="tram rail_urban rail rail_electric rail_fast ship container cable_car subway aircraft wheelchair scooter drone" speed="13.89" length="14.44" shape="542.39,653.29 546.42,639.42"/>
    </edge>
    <edge id=":2036485217_14" function="internal">
        <lane id=":2036485217_14_0" index="0" disallow="tram rail_urban rail rail_electric rail_fast ship container cable_car subway aircraft wheelchair scooter drone" speed="8.05" length="14.24" shape="542.39,653.29 544.01,649.73 546.37,647.54 549.48,646.70 553.34,647.22"/>
    </edge>
    <edge id=":2036485217_15" function="internal">
        <lane id=":2036485217_15_0" index="0" disallow="tram rail_urban rail rail_electric rail_fast ship container cable_car subway aircraft wheelchair scooter drone" speed="3.65" length="4.67" shape="542.39,653.29 543.49,652.36 544.37,652.20 545.03,652.81 545.46,654.19"/>
    </edge>
    <edge id=":2036485218_0" function="internal">
        <lane id=":2036485218_0_0" index="0" disallow="tram rail_urban rail rail_electric rail_fast ship container cable_car subway aircraft wheelchair scooter drone" speed="3.65" length="4.67" shape="573.34,546.39 574.44,545.46 575.32,545.30 575.98,545.90 576.41,547.28"/>
    </edge>
    <edge id=":2036485220_0" function="internal">
        <lane id=":2036485220_0_0" index="0" disallow="tram rail_urban rail rail_electric rail_fast ship container cable_car subway aircraft wheelchair scooter drone" speed="6.17" length="10.85" shape="555.86,883.66 553.52,885.88 551.39,886.45 549.46,885.37 547.75,882.65"/>
    </edge>
    <edge id=":2036485220_1" function="internal">
        <lane id=":2036485220_1_0" index="0" disallow="tram rail_urban rail rail_electric rail_fast ship container cable_car subway aircraft wheelchair scooter drone" speed="3.95" length="3.62" shape="550.66,881.32 551.23,882.23 551.87,882.59 552.58,882.40 553.36,881.66"/>
    </edge>
    <edge id=":2036485237_0" function="internal">
        <lane id=":2036485237_0_0" index="0" disallow="tram rail_urban rail rail_electric rail_fast ship container cable_car subway aircraft wheelchair scooter drone" speed="18.05" length="15.83" shape="612.72,671.13 609.22,669.51 605.84,667.25 602.45,665.01 598.95,663.44"/>
    </edge>
    <edge id=":2036485237_1" function="internal">
        <lane id=":2036485237_1_0" index="0" disallow="tram rail_urban rail rail_electric rail_fast ship container cable_car subway aircraft wheelchair scooter drone" speed="5.81" length="15.24" shape="612.72,671.13 610.20,656.10"/>
    </edge>
    <edge id=":2036485237_2" function="internal">
        <lane id=":2036485237_2_0" index="0" disallow="tram rail_urban rail rail_electric rail_fast ship container cable_car subway aircraft wheelchair scooter drone" speed="4.21" length="6.94" shape="612.72,671.13 615.56,664.80"/>
    </edge>
    <edge id=":2036485237_3" function="internal">
        <lane id=":2036485237_3_0" index="0" disallow="tram rail_urban rail rail_electric rail_fast ship container cable_car subway aircraft wheelchair scooter drone" speed="22.22" length="16.41" shape="614.74,667.89 598.95,663.44"/>
    </edge>
    <edge id=":2036485237_4" function="internal">
        <lane id=":2036485237_4_0" index="0" disallow="tram rail_urban rail rail_electric rail_fast ship container cable_car subway aircraft wheelchair scooter drone" speed="5.35" length="1.32" shape="614.74,667.89 614.26,666.66"/>
    </edge>
    <edge id=":2036485237_5" function="internal">
        <lane id=":2036485237_5_0" index="0" disallow="tram rail_urban rail rail_electric rail_fast ship container cable_car subway aircraft wheelchair scooter drone" speed="3.65" length="1.44" shape="614.74,667.89 613.78,666.81"/>
    </edge>
    <edge id=":2036485237_12" function="internal">
        <lane id=":2036485237_12_0" index="0" disallow="tram rail_urban rail rail_electric rail_fast ship container cable_car subway aircraft wheelchair scooter drone" speed="5.35" length="11.31" shape="614.26,666.66 610.20,656.10"/>
    </edge>
    <edge id=":2036485237_13" function="internal">
        <lane id=":2036485237_13_0" index="0" disallow="tram rail_urban rail rail_electric rail_fast ship container cable_car subway aircraft wheelchair scooter drone" speed="3.65" length="3.23" shape="613.78,666.81 613.60,665.94 614.19,665.27 615.56,664.80"/>
    </edge>
    <edge id=":2036485237_6" function="internal">
        <lane id=":2036485237_6_0" index="0" disallow="tram rail_urban rail rail_electric rail_fast ship container cable_car subway aircraft wheelchair scooter drone" speed="3.77" length="5.12" shape="613.21,660.25 615.56,664.80"/>
    </edge>
    <edge id=":2036485237_7" function="internal">
        <lane id=":2036485237_7_0" index="0" disallow="tram rail_urban rail rail_electric rail_fast ship container cable_car subway aircraft wheelchair scooter drone" speed="18.05" length="14.86" shape="613.21,660.25 609.63,660.38 606.08,661.86 602.53,663.33 598.95,663.44"/>
    </edge>
    <edge id=":2036485237_8" function="internal">
        <lane id=":2036485237_8_0" index="0" disallow="tram rail_urban rail rail_electric rail_fast ship container cable_car subway aircraft wheelchair scooter drone" speed="4.33" length="7.49" shape="613.21,660.25 610.90,660.34 609.63,659.68 609.39,658.27 610.20,656.10"/>
    </edge>
    <edge id=":2036485237_9" function="internal">
        <lane id=":2036485237_9_0" index="0" disallow="tram rail_urban rail rail_electric rail_fast ship container cable_car subway aircraft wheelchair scooter drone" speed="18.05" length="11.74" shape="599.82,660.36 602.79,660.08 605.00,658.24 607.22,656.39 610.20,656.10"/>
    </edge>
    <edge id=":2036485237_10" function="internal">
        <lane id=":2036485237_10_0" index="0" disallow="tram rail_urban rail rail_electric rail_fast ship container cable_car subway aircraft wheelchair scooter drone" speed="22.22" length="16.36" shape="599.82,660.36 615.56,664.80"/>
    </edge>
    <edge id=":2036485237_11" function="internal">
        <lane id=":2036485237_11_0" index="0" disallow="tram rail_urban rail rail_electric rail_fast ship container cable_car subway aircraft wheelchair scooter drone" speed="3.65" length="1.44" shape="599.82,660.36 600.75,661.45"/>
    </edge>
    <edge id=":2036485237_14" function="internal">
        <lane id=":2036485237_14_0" index="0" disallow="tram rail_urban rail rail_electric rail_fast ship container cable_car subway aircraft wheelchair scooter drone" speed="3.65" length="3.23" shape="600.75,661.45 600.92,662.33 600.32,662.99 598.95,663.44"/>
    </edge>
    <edge id=":2038168189_0" function="internal">
        <lane id=":2038168189_0_0" index="0" disallow="tram rail_urban rail rail_electric rail_fast ship container cable_car subway aircraft wheelchair scooter drone" speed="22.22" length="0.11" shape="615.02,667.97 614.92,667.94"/>
    </edge>
    <edge id=":2038168189_1" function="internal">
        <lane id=":2038168189_1_0" index="0" disallow="tram rail_urban rail rail_electric rail_fast ship container cable_car subway aircraft wheelchair scooter drone" speed="22.22" length="0.15" shape="615.75,664.85 615.90,664.89"/>
    </edge>
    <edge id=":2458996272_0" function="internal">
        <lane id=":2458996272_0_0" index="0" disallow="tram rail_urban rail rail_electric rail_fast ship container cable_car subway aircraft wheelchair scooter drone" speed="7.18" length="3.04" shape="646.54,666.37 645.87,666.95 645.34,667.27 644.73,667.44 643.84,667.57"/>
    </edge>
    <edge id=":2458996272_1" function="internal">
        <lane id=":2458996272_1_0" index="0" disallow="tram rail_urban rail rail_electric rail_fast ship container cable_car subway aircraft wheelchair scooter drone" speed="4.52" length="1.03" shape="643.41,664.40 643.72,664.36 643.93,664.32 644.12,664.23 644.35,664.04"/>
    </edge>
    <edge id=":2458996317_0" function="internal">
        <lane id=":2458996317_0_0" index="0" allow="pedestrian bicycle" speed="2.89" length="2.92" width="2.00" shape="653.64,431.55 653.47,432.43 653.10,432.85 652.54,432.81 651.79,432.31"/>
    </edge>
    <edge id=":2458996339_0" function="internal">
        <lane id=":2458996339_0_0" index="0" allow="pedestrian bicycle" speed="5.56" length="4.98" width="2.00" shape="650.66,377.13 650.64,378.59 650.49,379.61 650.08,380.54 649.28,381.77"/>
    </edge>
    <edge id=":2458996339_1" function="internal">
        <lane id=":2458996339_1_0" index="0" allow="pedestrian bicycle" speed="2.89" length="2.92" width="2.00" shape="650.66,377.13 650.16,377.88 649.66,378.13 649.16,377.88 648.66,377.13"/>
    </edge>
    <edge id=":2458996339_2" function="internal">
        <lane id=":2458996339_2_0" index="0" allow="pedestrian bicycle" speed="5.56" length="3.74" width="2.00" shape="647.63,380.63 648.23,379.71 648.54,379.00 648.65,378.24 648.66,377.13"/>
    </edge>
    <edge id=":2458996339_3" function="internal">
        <lane id=":2458996339_3_0" index="0" allow="pedestrian bicycle" speed="2.89" length="2.92" width="2.00" shape="647.63,380.63 648.47,380.30 649.02,380.38 649.29,380.87 649.28,381.77"/>
    </edge>
    <edge id=":2458997498_0" function="internal">
        <lane id=":2458997498_0_0" index="0" disallow="tram rail_urban rail rail_electric rail_fast ship container cable_car subway aircraft wheelchair scooter drone" speed="5.01" length="3.82" shape="640.75,682.28 640.65,681.07 640.34,680.14 639.84,679.48 639.13,679.10"/>
    </edge>
    <edge id=":2458997498_1" function="internal">
        <lane id=":2458997498_1_0" index="0" disallow="tram rail_urban rail rail_electric rail_fast ship container cable_car subway aircraft wheelchair scooter drone" speed="3.65" length="4.67" shape="640.75,682.28 641.55,681.08 642.35,680.68 643.15,681.08 643.95,682.28"/>
    </edge>
    <edge id=":2869379494_0" function="internal">